*************************************************
* 180nm CMOS Technology Models (Educational Use)
*************************************************

* NMOS Model
.model NMOS NMOS LEVEL=1
+ VTO = 0.45
+ KP  = 120e-6
+ GAMMA = 0.4
+ PHI = 0.7
+ LAMBDA = 0.05
+ TOX = 4e-9
+ CGSO = 2e-10
+ CGDO = 2e-10
+ CJ = 2e-4
+ MJ = 0.5

* PMOS Model
.model PMOS PMOS LEVEL=1
+ VTO = -0.45
+ KP  = 60e-6
+ GAMMA = 0.4
+ PHI = 0.7
+ LAMBDA = 0.05
+ TOX = 4e-9
+ CGSO = 2e-10
+ CGDO = 2e-10
+ CJ = 2e-4
+ MJ = 0.5

*************************************************
* End of Model File
*************************************************
